/*--------------------------------*- C++ -*----------------------------------*\
| =========                 |                                                 |
| \\      /  F ield         | OpenFOAM: The Open Source CFD Toolbox           |
|  \\    /   O peration     | Version:  v2006                                 |
|   \\  /    A nd           | Website:  www.openfoam.com                      |
|    \\/     M anipulation  |                                                 |
\*---------------------------------------------------------------------------*/

FoamFile
{
    version     2.0;
    format      ascii;
    class       dictionary;
    location    "system";
    object      fvSolution;
}
// * * * * * * * * * * * * * * * * * * * * * * * * * * * * * * * * * * * * * //

solvers
{
    p
    {
        solver          GAMG;
		smoother        GaussSeidel;
        tolerance       1e-8;
        relTol          0.1;
        minIter         1;
    }

    "(U|k|omega)"
    {
        solver          smoothSolver;
        smoother        symGaussSeidel;
        tolerance       1e-9;
        relTol          0.1;
        maxIter         10;
        minIter         1;
    }
}

SIMPLE
{
    consistent      			yes;
    nNonOrthogonalCorrectors 	0;
}

relaxationFactors
{
    equations
    {
        U               0.9;
        k               0.7;
        omega           0.7;
    }
}

// ************************************************************************* //
